
  EPA STORM WATER MANAGEMENT MODEL - VERSION 5.1 (Build 5.1.015)
  --------------------------------------------------------------

  Example 1 of Extran Manual 
  
  WARNING 03: negative offset ignored for Link 8040
  WARNING 03: negative offset ignored for Link 8040
  WARNING 03: negative offset ignored for Link 8060
  WARNING 03: negative offset ignored for Link 8060
  WARNING 03: negative offset ignored for Link 8100
  WARNING 03: negative offset ignored for Link 8100
  WARNING 03: negative offset ignored for Link 8130
  WARNING 03: negative offset ignored for Link 8130
  WARNING 03: negative offset ignored for Link 1030
  WARNING 03: negative offset ignored for Link 1030
  WARNING 03: negative offset ignored for Link 1570
  WARNING 03: negative offset ignored for Link 1570
  WARNING 03: negative offset ignored for Link 1600
  WARNING 03: negative offset ignored for Link 1600
  WARNING 03: negative offset ignored for Link 1630
  WARNING 03: negative offset ignored for Link 1630
  WARNING 03: negative offset ignored for Link 1602
  WARNING 03: negative offset ignored for Link 1602
  
  *********************************************************
  NOTE: The summary statistics displayed in this report are
  based on results found at every computational time step,  
  not just on results from each reporting time step.
  *********************************************************
  
  ****************
  Analysis Options
  ****************
  Flow Units ............... CFS
  Process Models:
    Rainfall/Runoff ........ NO
    RDII ................... NO
    Snowmelt ............... NO
    Groundwater ............ NO
    Flow Routing ........... YES
    Ponding Allowed ........ NO
    Water Quality .......... NO
  Flow Routing Method ...... DYNWAVE
  Surcharge Method ......... EXTRAN
  Starting Date ............ 01/01/2002 00:00:00
  Ending Date .............. 01/01/2002 08:00:00
  Antecedent Dry Days ...... 0.0
  Report Time Step ......... 00:15:00
  Routing Time Step ........ 20.00 sec
  Variable Time Step ....... NO
  Maximum Trials ........... 8
  Number of Threads ........ 1
  Head Tolerance ........... 0.005000 ft
  
  
  **************************        Volume        Volume
  Flow Routing Continuity        acre-feet      10^6 gal
  **************************     ---------     ---------
  Dry Weather Inflow .......         0.000         0.000
  Wet Weather Inflow .......         0.000         0.000
  Groundwater Inflow .......         0.000         0.000
  RDII Inflow ..............         0.000         0.000
  External Inflow ..........        33.470        10.907
  External Outflow .........        30.628         9.980
  Flooding Loss ............         2.739         0.893
  Evaporation Loss .........         0.000         0.000
  Exfiltration Loss ........         0.000         0.000
  Initial Stored Volume ....         0.000         0.000
  Final Stored Volume ......         0.147         0.048
  Continuity Error (%) .....        -0.130
  
  
  ********************************
  Highest Flow Instability Indexes
  ********************************
  All links are stable.
  
  
  *************************
  Routing Time Step Summary
  *************************
  Minimum Time Step           :    20.00 sec
  Average Time Step           :    20.00 sec
  Maximum Time Step           :    20.00 sec
  Percent in Steady State     :     0.00
  Average Iterations per Step :     2.40
  Percent Not Converging      :     4.17
  
  
  ******************
  Node Depth Summary
  ******************
  
  ---------------------------------------------------------------------------------
                                 Average  Maximum  Maximum  Time of Max    Reported
                                   Depth    Depth      HGL   Occurrence   Max Depth
  Node                 Type         Feet     Feet     Feet  days hr:min        Feet
  ---------------------------------------------------------------------------------
  80408                JUNCTION     4.20    13.40   138.00     0  00:34       12.75
  80608                JUNCTION     5.62    16.70   135.00     0  00:34       16.70
  81009                JUNCTION     1.11     2.85   131.05     0  00:31        2.84
  81309                JUNCTION     1.32     3.10   120.60     0  01:00        3.10
  82309                JUNCTION     7.81    24.98   137.28     0  00:27       21.43
  10309                JUNCTION     1.48     2.76   104.36     0  01:48        2.76
  15009                JUNCTION     1.13     2.45   113.95     0  01:35        2.45
  16009                JUNCTION     1.56     2.95   104.95     0  01:41        2.95
  16109                JUNCTION     1.40     2.96   105.76     0  01:49        2.96
  10208                OUTFALL      1.31     2.53    92.43     0  01:48        2.53
  
  
  *******************
  Node Inflow Summary
  *******************
  
  -------------------------------------------------------------------------------------------------
                                  Maximum  Maximum                  Lateral       Total        Flow
                                  Lateral    Total  Time of Max      Inflow      Inflow     Balance
                                   Inflow   Inflow   Occurrence      Volume      Volume       Error
  Node                 Type           CFS      CFS  days hr:min    10^6 gal    10^6 gal     Percent
  -------------------------------------------------------------------------------------------------
  80408                JUNCTION     45.00    45.00     0  00:15        3.64        3.64      -0.339
  80608                JUNCTION      0.00    45.95     0  00:22           0        3.64       0.007
  81009                JUNCTION     50.00    50.00     0  00:15        4.04        4.04      -0.536
  81309                JUNCTION      0.00    53.78     0  00:40           0        4.06       0.322
  82309                JUNCTION     40.00    83.90     0  00:27        3.23        5.99      -0.077
  10309                JUNCTION      0.00   122.41     0  01:40           0        9.99       0.148
  15009                JUNCTION      0.00    51.03     0  01:13           0        4.05       0.152
  16009                JUNCTION      0.00   122.43     0  01:37           0          10       0.226
  16109                JUNCTION      0.00    71.99     0  01:49           0        5.99       0.262
  10208                OUTFALL       0.00   122.35     0  01:48           0        9.98       0.000
  
  
  **********************
  Node Surcharge Summary
  **********************
  
  Surcharging occurs when water rises above the top of the highest conduit.
  ---------------------------------------------------------------------
                                               Max. Height   Min. Depth
                                   Hours       Above Crown    Below Rim
  Node                 Type      Surcharged           Feet         Feet
  ---------------------------------------------------------------------
  80408                JUNCTION        2.53          9.400        0.000
  80608                JUNCTION        2.67         12.700        0.000
  82309                JUNCTION        2.85         19.976       17.724
  
  
  *********************
  Node Flooding Summary
  *********************
  
  Flooding refers to all water that overflows a node, whether it ponds or not.
  --------------------------------------------------------------------------
                                                             Total   Maximum
                                 Maximum   Time of Max       Flood    Ponded
                        Hours       Rate    Occurrence      Volume     Depth
  Node                 Flooded       CFS   days hr:min    10^6 gal      Feet
  --------------------------------------------------------------------------
  80408                   0.02     21.78      0  00:34       0.006     0.000
  80608                   2.48     20.61      0  00:35       0.887     0.000
  
  
  ***********************
  Outfall Loading Summary
  ***********************
  
  -----------------------------------------------------------
                         Flow       Avg       Max       Total
                         Freq      Flow      Flow      Volume
  Outfall Node           Pcnt       CFS       CFS    10^6 gal
  -----------------------------------------------------------
  10208                 94.03     49.27    122.35       9.980
  -----------------------------------------------------------
  System                94.03     49.27    122.35       9.980
  
  
  ********************
  Link Flow Summary
  ********************
  
  -----------------------------------------------------------------------------
                                 Maximum  Time of Max   Maximum    Max/    Max/
                                  |Flow|   Occurrence   |Veloc|    Full    Full
  Link                 Type          CFS  days hr:min    ft/sec    Flow   Depth
  -----------------------------------------------------------------------------
  8040                 CONDUIT     45.95     0  00:22      6.79    0.62    1.00
  8060                 CONDUIT     46.36     0  03:15      4.27    0.69    1.00
  8100                 CONDUIT     53.78     0  00:40      6.75    0.69    0.64
  8130                 CONDUIT     51.03     0  01:13      5.52    0.72    0.61
  1030                 CONDUIT    122.35     0  01:48      5.84    0.04    0.29
  1570                 CONDUIT     50.48     0  01:35      4.37    0.41    0.49
  1600                 CONDUIT     71.99     0  01:58      5.59    0.49    0.49
  1630                 CONDUIT    122.41     0  01:40      5.97    0.05    0.32
  1602                 CONDUIT     71.99     0  01:49      4.33    1.66    0.80
  
  
  ***************************
  Flow Classification Summary
  ***************************
  
  -------------------------------------------------------------------------------------
                      Adjusted    ---------- Fraction of Time in Flow Class ---------- 
                       /Actual         Up    Down  Sub   Sup   Up    Down  Norm  Inlet 
  Conduit               Length    Dry  Dry   Dry   Crit  Crit  Crit  Crit  Ltd   Ctrl  
  -------------------------------------------------------------------------------------
  8040                    1.00   0.00  0.13  0.00  0.85  0.03  0.00  0.00  0.62  0.00
  8060                    1.00   0.00  0.00  0.00  1.00  0.00  0.00  0.00  0.65  0.00
  8100                    1.00   0.00  0.00  0.00  0.97  0.03  0.00  0.00  0.92  0.00
  8130                    1.00   0.00  0.00  0.00  0.97  0.02  0.00  0.00  0.59  0.00
  1030                    1.00   0.03  0.00  0.00  0.97  0.00  0.00  0.00  0.00  0.00
  1570                    1.00   0.00  0.00  0.00  1.00  0.00  0.00  0.00  0.95  0.00
  1600                    1.00   0.00  0.00  0.00  0.98  0.02  0.00  0.00  0.51  0.00
  1630                    1.00   0.00  0.00  0.00  0.97  0.03  0.00  0.00  0.44  0.00
  1602                    1.00   0.00  0.00  0.00  1.00  0.00  0.00  0.00  0.00  0.00
  
  
  *************************
  Conduit Surcharge Summary
  *************************
  
  ----------------------------------------------------------------------------
                                                           Hours        Hours 
                         --------- Hours Full --------   Above Full   Capacity
  Conduit                Both Ends  Upstream  Dnstream   Normal Flow   Limited
  ----------------------------------------------------------------------------
  8040                        2.53      2.53      2.66      0.01         0.01
  8060                        2.66      2.66      3.06      0.01         0.01
  1602                        0.01      2.85      0.01      2.83         0.01
  

  Analysis begun on:  Thu Mar  4 16:11:54 2021
  Analysis ended on:  Thu Mar  4 16:11:54 2021
  Total elapsed time: < 1 sec